LAMMPS (29 Sep 2021 - Update 2)
# lmp -in therm.lammps
# Muller-Plathe method via fix thermal_conductivity

# conda activate nequip_cuda10.1
# export CUDA_VISIBLE_DEVICES=2
#   lmp -in run_therm_1200
# nohup lmp -in run_therm_1200 > therm_1200_job.out #job =8154
# 1) Initialization
units metal
dimension 3
newton off on
atom_style atomic
boundary p p p

# 2) System definition
read_data	FNa_1300_100_startpoint.lammps
Reading data file ...
  orthogonal box = (0.0000000 0.0000000 0.0000000) to (11.651295 11.651295 11.651295)
  reading atoms ...
  100 atoms
change_box all x final 0 11.471171944527095 y final 0 11.471171944527095 z final 0 11.471171944527095 remap
Changing box ...
  orthogonal box = (0.0000000 0.0000000 0.0000000) to (11.471172 11.651295 11.651295)
  orthogonal box = (0.0000000 0.0000000 0.0000000) to (11.471172 11.471172 11.651295)
  orthogonal box = (0.0000000 0.0000000 0.0000000) to (11.471172 11.471172 11.471172)

# 3) Simulation settings
pair_style	nequip
pair_coeff	* * FLiNa_f_pyt10.2 F Li Na #Li F Na

# 4) NPT:
replicate 2 3 4
Replicating atoms ...
  orthogonal box = (0.0000000 0.0000000 0.0000000) to (22.942344 34.413516 45.884688)
  2400 atoms
  replicate CPU = 0.001 seconds

thermo 1
minimize 1.00e-9 1.0e-9 1000 10000000
  update every 1 steps, delay 0 steps, check yes
Step Temp E_pair E_mol TotEng Press
0            0   -6777.4312            0   -6777.4312            0
Loop time of 121.13 on 1 procs for 421 steps with 2400 atoms

Minimization stats:
  Stopping criterion = energy tolerance
  Energy initial, next-to-last, final =
  Force two-norm initial, final = 189.07415 0.24487353
  Force max component initial, final = 9.9351892 0.070766777
  Final line search alpha, max atom move = 5.9252340e-06 4.1930971e-07
  Iterations, force evaluations = 421 604

timestep .001 # fetmoseconds
variable Tsim equal 1200 # Kelvin
velocity all create 1200 12335

#-------------------------------------------
# 1st equilibration run
fix 1 all nvt temp 1200 1200 $(100.0*dt)
fix 1 all nvt temp 1200 1200 0.10000000000000000555
thermo          100
reset_timestep 0
run 50000
Step Temp E_pair E_mol TotEng Press
0         1200   -10560.973            0   -10188.859    10971.364
Averages over the last 251 of 501 rows, steps 25000 to 50000:
Temp E_pair E_mol TotEng Press
1199.32 -10242.1 0 -9870.23 10965.1
Loop time of 9337.72 on 1 procs for 50000 steps with 2400 atoms

velocity        all scale 1200
unfix           1

#-----------------------------------------
# 2nd equilibration run
compute         ke all ke/atom
variable        temp atom c_ke/1.5

fix             1 all nve

compute         layers all chunk/atom bin/1d z lower 0.05 units reduced # <--- delta z ?
fix             2 all ave/chunk 10 100 1000 layers v_temp file profile.mp # <--- use every 10 steps, 100 times, repeat every 1000 steps
fix             3 all thermal/conductivity 10 z 20 # <--- perform kintic energy swap every 10 steps, using 20 bins

variable        tdiff equal f_2[11][3]-f_2[1][3]
thermo_style    custom step temp epair etotal f_3 v_tdiff
thermo          1000
#thermo_modify   colname f_3 E_delta colname v_tdiff dTemp_step

run 200000
Step Temp E_pair TotEng f_3 v_tdiff
50000         1200   -10229.531   -9857.4171            0            0
Averages over the last 101 of 201 rows, steps 150000 to 250000:
Temp E_pair TotEng f_3 v_tdiff
1189.32 -10226 -9857.21 6089.84 0.0701254
Loop time of 37176.6 on 1 procs for 200000 steps with 2400 atoms

#------------------------------------------
# thermal conductivity calculation
fix             3 all thermal/conductivity 10 z 20

variable start_time equal time
variable kappa equal (f_3/(time-250)/(lx*ly)/2.0)*(lz/2.0)/f_ave

fix             ave all ave/time 1 1 1000 v_tdiff ave running
thermo_style    custom step temp epair etotal f_3 v_tdiff f_ave

run 200000
Step Temp E_pair TotEng f_3 v_tdiff f_ave
250000    1180.2436    -10223.13   -9857.1421            0  0.069906679  0.069906679
Averages over the last 101 of 201 rows, steps 350000 to 450000:
Temp E_pair TotEng f_3 v_tdiff f_ave
1175.09 -10221.3 -9856.96 6051.39 0.068537 0.0696523
Loop time of 37177.8 on 1 procs for 200000 steps with 2400 atoms

print           "Running average thermal conductivity: $(v_kappa:%.2f)"
Running average thermal conductivity: 8.47

write_data	Therm_1200_restartpoint.lammps
System init for write_data ...
