LAMMPS (29 Sep 2021 - Update 2)
# lmp -in therm.lammps
# Muller-Plathe method via fix thermal_conductivity

# conda activate nequip_cuda10.1
# export CUDA_VISIBLE_DEVICES=2
#   lmp -in run_therm_1400
# nohup lmp -in run_therm_1400 > therm_1400_job.out #job =8154
# 1) Initialization
units metal
dimension 3
newton off on
atom_style atomic
boundary p p p

# 2) System definition
read_data	FLi_1300_100_startpoint.lammps
Reading data file ...
  orthogonal box = (0.0000000 0.0000000 0.0000000) to (9.0565509 9.0565509 9.0565509)
  reading atoms ...
  100 atoms
change_box all x final 0 10.717079120916019 y final 0 10.717079120916019 z final 0 10.717079120916019 remap
Changing box ...
  orthogonal box = (0.0000000 0.0000000 0.0000000) to (10.717079 9.0565509 9.0565509)
  orthogonal box = (0.0000000 0.0000000 0.0000000) to (10.717079 10.717079 9.0565509)
  orthogonal box = (0.0000000 0.0000000 0.0000000) to (10.717079 10.717079 10.717079)

# 3) Simulation settings
pair_style	nequip
pair_coeff	* * FLiNa_f_pyt10.2 F Li Na #Li F Na

# 4) NPT:
replicate 2 3 4
Replicating atoms ...
  orthogonal box = (0.0000000 0.0000000 0.0000000) to (21.434158 32.151237 42.868316)
  2400 atoms
  replicate CPU = 0.001 seconds

# thermo 1
# minimize 1.00e-9 1.0e-9 1000000 10000000
# run 100

timestep .001 # fetmoseconds
variable Tsim equal 1400 # Kelvin
velocity all create 1400 12335

#-------------------------------------------
# 1st equilibration run
fix 1 all nvt temp 1400 1400 $(100.0*dt)
fix 1 all nvt temp 1400 1400 0.10000000000000000555
thermo          100
run 50000
  update every 1 steps, delay 10 steps, check yes
Step Temp E_pair E_mol TotEng Press
0         1400   -11015.196            0   -10581.063    15696.451
Averages over the last 251 of 501 rows, steps 25000 to 50000:
Temp E_pair E_mol TotEng Press
1396.64 -11081.9 0 -10648.8 15658.8
Loop time of 10508.7 on 1 procs for 50000 steps with 2400 atoms

velocity        all scale 1400
unfix           1

#-----------------------------------------
# 2nd equilibration run
compute         ke all ke/atom
variable        temp atom c_ke/1.5

fix             1 all nve

compute         layers all chunk/atom bin/1d z lower 0.05 units reduced # <--- delta z ?
fix             2 all ave/chunk 10 100 1000 layers v_temp file profile.mp # <--- use every 10 steps, 100 times, repeat every 1000 steps
fix             3 all thermal/conductivity 10 z 20 # <--- perform kintic energy swap every 10 steps, using 20 bins

variable        tdiff equal f_2[11][3]-f_2[1][3]
thermo_style    custom step temp epair etotal f_3 v_tdiff
thermo          1000
#thermo_modify   colname f_3 E_delta colname v_tdiff dTemp_step

run 200000
Step Temp E_pair TotEng f_3 v_tdiff
50000         1400   -11074.023    -10639.89            0            0
Averages over the last 101 of 201 rows, steps 150000 to 250000:
Temp E_pair TotEng f_3 v_tdiff
1412.56 -11078.2 -10640.2 7352.58 0.0696473
Loop time of 42151.4 on 1 procs for 200000 steps with 2400 atoms

#------------------------------------------
# thermal conductivity calculation
fix             3 all thermal/conductivity 10 z 20

variable start_time equal time
variable kappa equal (f_3/(time-250)/(lx*ly)/2.0)*(lz/2.0)/f_ave

fix             ave all ave/time 1 1 1000 v_tdiff ave running
thermo_style    custom step temp epair etotal f_3 v_tdiff f_ave

run 200000
Step Temp E_pair TotEng f_3 v_tdiff f_ave
250000     1448.367   -11089.487   -10640.356            0  0.073261382  0.073261382
Averages over the last 101 of 201 rows, steps 350000 to 450000:
Temp E_pair TotEng f_3 v_tdiff f_ave
1414.88 -11079.4 -10640.7 7321.56 0.0699552 0.0700189
Loop time of 42099.2 on 1 procs for 200000 steps with 2400 atoms

print           "Running average thermal conductivity: $(v_kappa:%.2f)"
Running average thermal conductivity: 10.85

write_data	Therm_1400_restartpoint.lammps
System init for write_data ...
