LAMMPS (29 Sep 2021 - Update 2)
# lmp -in therm.lammps
# Muller-Plathe method via fix thermal_conductivity

# conda activate nequip_cuda10.1
# export CUDA_VISIBLE_DEVICES=2
#   lmp -in run_therm_1100
# nohup lmp -in run_therm_1100 > therm_1100_job.out #job =25768
# 1) Initialization
units metal
dimension 3
newton off on
atom_style atomic
boundary p p p

# 2) System definition
read_data	FNa_1300_100_startpoint.lammps
Reading data file ...
  orthogonal box = (0.0000000 0.0000000 0.0000000) to (11.651295 11.651295 11.651295)
  reading atoms ...
  100 atoms
change_box all x final 0 11.301694839547585 y final 0 11.301694839547585 z final 0 11.301694839547585 remap
Changing box ...
  orthogonal box = (0.0000000 0.0000000 0.0000000) to (11.301695 11.651295 11.651295)
  orthogonal box = (0.0000000 0.0000000 0.0000000) to (11.301695 11.301695 11.651295)
  orthogonal box = (0.0000000 0.0000000 0.0000000) to (11.301695 11.301695 11.301695)

# 3) Simulation settings
pair_style	nequip
pair_coeff	* * FLiNa_f_pyt10.2 F Li Na #Li F Na

# 4) NPT:
replicate 2 3 4
Replicating atoms ...
  orthogonal box = (0.0000000 0.0000000 0.0000000) to (22.603390 33.905085 45.206779)
  2400 atoms
  replicate CPU = 0.001 seconds

thermo 1
minimize 1.00e-9 1.0e-9 1000 10000000
  update every 1 steps, delay 0 steps, check yes
Step Temp E_pair E_mol TotEng Press
0            0     -6697.27            0     -6697.27            0
Loop time of 90.3407 on 1 procs for 233 steps with 2400 atoms

Minimization stats:
  Stopping criterion = energy tolerance
  Energy initial, next-to-last, final =
  Force two-norm initial, final = 206.41331 0.16002326
  Force max component initial, final = 11.108009 0.017575188
  Final line search alpha, max atom move = 0.00097656250 1.7163269e-05
  Iterations, force evaluations = 233 424

timestep .001 # fetmoseconds
variable Tsim equal 1100 # Kelvin
velocity all create 1100 1255

#-------------------------------------------
# 1st equilibration run
fix 1 all nvt temp 1100 1100 $(100.0*dt)
fix 1 all nvt temp 1100 1100 0.10000000000000000555
thermo          100
reset_timestep 0
run 50000
Step Temp E_pair E_mol TotEng Press
0         1100   -10473.538            0   -10132.433    10516.342
Averages over the last 251 of 501 rows, steps 25000 to 50000:
Temp E_pair E_mol TotEng Press
1098.8 -10332.7 0 -9992.01 10504.9
Loop time of 9593.4 on 1 procs for 50000 steps with 2400 atoms

velocity        all scale 1100
unfix           1

#-----------------------------------------
# 2nd equilibration run
compute         ke all ke/atom
variable        temp atom c_ke/1.5

fix             1 all nve

compute         layers all chunk/atom bin/1d z lower 0.05 units reduced # <--- delta z ?
fix             2 all ave/chunk 10 100 1000 layers v_temp file profile.mp # <--- use every 10 steps, 100 times, repeat every 1000 steps
fix             3 all thermal/conductivity 10 z 20 # <--- perform kintic energy swap every 10 steps, using 20 bins

variable        tdiff equal f_2[11][3]-f_2[1][3]
thermo_style    custom step temp epair etotal f_3 v_tdiff
thermo          1000
run 200000
Step Temp E_pair TotEng f_3 v_tdiff
50000         1100   -10325.843   -9984.7382            0            0
Averages over the last 101 of 201 rows, steps 150000 to 250000:
Temp E_pair TotEng f_3 v_tdiff
1113.08 -10329.9 -9984.74 5600.58 0.0672444
Loop time of 38048 on 1 procs for 200000 steps with 2400 atoms

#------------------------------------------
# thermal conductivity calculation
fix             3 all thermal/conductivity 10 z 20

variable start_time equal time
variable kappa equal (f_3/(time-250)/(lx*ly)/2.0)*(lz/2.0)/f_ave

fix             ave all ave/time 1 1 1000 v_tdiff ave running
thermo_style    custom step temp epair etotal f_3 v_tdiff f_ave

run 200000
Step Temp E_pair TotEng f_3 v_tdiff f_ave
250000    1108.8719   -10328.597    -9984.741            0  0.068222573  0.068222573
Averages over the last 101 of 201 rows, steps 350000 to 450000:
Temp E_pair TotEng f_3 v_tdiff f_ave
1116.28 -10330.9 -9984.73 5616.07 0.066804 0.0670316
Loop time of 38083.9 on 1 procs for 200000 steps with 2400 atoms

print           "Running average thermal conductivity: $(v_kappa:%.2f)"
Running average thermal conductivity: 8.22

write_data	Therm_1100_restartpoint.lammps
System init for write_data ...
