LAMMPS (29 Sep 2021 - Update 2)
# lmp -in therm.lammps
# Muller-Plathe method via fix thermal_conductivity

# conda activate nequip_cuda10.1
# export CUDA_VISIBLE_DEVICES=2
#   lmp -in run_therm_1300
# nohup lmp -in run_therm_1300 > therm_1300_job.out #job =8154
# 1) Initialization
units metal
dimension 3
newton off on
atom_style atomic
boundary p p p

# 2) System definition
read_data	Therm_1300_restartpoint.lammps
Reading data file ...
  orthogonal box = (0.0000000 0.0000000 0.0000000) to (22.503759 33.755638 45.007517)
  reading atoms ...
  2400 atoms
  reading velocities ...
  2400 velocities

#read_data	tttt.lammps
#read_data	test.lammps

# 3) Simulation settings
pair_style	nequip
pair_coeff	* * FLiNa_f_pyt10.2 F Li Na #Li F Na

# 4) NPT:
thermo 1
minimize 1.00e-9 1.0e-9 1000 10000000
  update every 1 steps, delay 0 steps, check yes
Step Temp E_pair E_mol TotEng Press
0    1315.6211   -10557.043            0   -10149.075    12745.544
Loop time of 85.8186 on 1 procs for 237 steps with 2400 atoms

Minimization stats:
  Stopping criterion = linesearch alpha is zero
  Energy initial, next-to-last, final =
  Force two-norm initial, final = 59.470933 0.53021440
  Force max component initial, final = 3.7791686 0.17499611
  Final line search alpha, max atom move = 3.4060073e-08 5.9603802e-09
  Iterations, force evaluations = 237 423

timestep .001 # fetmoseconds
variable Tsim equal 1300 # Kelvin
velocity all create 1300 12335
# dump_modify     dump1 sort id

#-------------------------------------------
# 1st equilibration run
#fix 1 all nve
fix 1 all nvt temp 1300 1300 $(100.0*dt)
fix 1 all nvt temp 1300 1300 0.10000000000000000555
thermo          100
reset_timestep 0

run 50000
Step Temp E_pair E_mol TotEng Press
0         1300   -11029.256            0   -10626.132    12594.209
Averages over the last 251 of 501 rows, steps 25000 to 50000:
Temp E_pair E_mol TotEng Press
1295.86 -10560.9 0 -10159.1 12554.1
Loop time of 9358.9 on 1 procs for 50000 steps with 2400 atoms

velocity        all scale 1300
unfix           1

#-----------------------------------------
# 2nd equilibration run
compute         ke all ke/atom
variable        temp atom c_ke/1.5

fix             1 all nve

compute         layers all chunk/atom bin/1d z lower 0.05 units reduced # <--- delta z ?
fix             2 all ave/chunk 10 100 1000 layers v_temp file profile.mp # <--- use every 10 steps, 100 times, repeat every 1000 steps
fix             3 all thermal/conductivity 10 z 20 # <--- perform kintic energy swap every 10 steps, using 20 bins

variable        tdiff equal f_2[11][3]-f_2[1][3]
thermo_style    custom step temp epair etotal f_3 v_tdiff
thermo          1000
#thermo_modify   colname f_3 E_delta colname v_tdiff dTemp_step

run 200000
Step Temp E_pair TotEng f_3 v_tdiff
50000         1300   -10550.312   -10147.189            0            0
Averages over the last 101 of 201 rows, steps 150000 to 250000:
Temp E_pair TotEng f_3 v_tdiff
1316.82 -10555.2 -10146.9 6235.58 0.0761006
Loop time of 37337.6 on 1 procs for 200000 steps with 2400 atoms

#------------------------------------------
# thermal conductivity calculation
# reset fix thermal/conductivity to zero energy accumulation
fix             3 all thermal/conductivity 10 z 20

variable start_time equal time
variable kappa equal (f_3/(time-250)/(lx*ly)/2.0)*(lz/2.0)/f_ave

fix             ave all ave/time 1 1 1000 v_tdiff ave running
thermo_style    custom step temp epair etotal f_3 v_tdiff f_ave
# thermo_modify   colname f_3 E_delta colname v_tdiff dTemp_step colname f_ave dTemp

run 200000
Step Temp E_pair TotEng f_3 v_tdiff f_ave
250000    1322.7857   -10556.979    -10146.79            0   0.07415348   0.07415348
Averages over the last 101 of 201 rows, steps 350000 to 450000:
Temp E_pair TotEng f_3 v_tdiff f_ave
1321.67 -10556.3 -10146.5 6194.95 0.0761613 0.0766251
Loop time of 37351.6 on 1 procs for 200000 steps with 2400 atoms

print           "Running average thermal conductivity: $(v_kappa:%.2f)"
Running average thermal conductivity: 8.00

# unfix NVT
# timestep .1
# run 100
write_data	Therm_1300_restartpoint.lammps
System init for write_data ...
