LAMMPS (29 Sep 2021 - Update 2)
# lmp -in therm.lammps
# Muller-Plathe method via fix thermal_conductivity

# conda activate nequip_cuda10.1
# export CUDA_VISIBLE_DEVICES=2
#   lmp -in run_therm_1100
# nohup lmp -in run_therm_1100 > therm_1100_job.out #job =25768
# 1) Initialization
units metal
dimension 3
newton off on
atom_style atomic
boundary p p p

# 2) System definition
read_data	Therm_1100_restartpoint.lammps
Reading data file ...
  orthogonal box = (0.0000000 0.0000000 0.0000000) to (22.166497 33.249745 44.332993)
  reading atoms ...
  2400 atoms
  reading velocities ...
  2400 velocities

# 3) Simulation settings
pair_style	nequip
pair_coeff	* * FLiNa_f_pyt10.2 F Li Na #Li F Na

# 4) NPT:
thermo 1
minimize 1.00e-9 1.0e-9 1000 10000000
  update every 1 steps, delay 0 steps, check yes
Step Temp E_pair E_mol TotEng Press
0    1101.8057   -10666.116            0   -10324.452    11168.801
Loop time of 120.956 on 1 procs for 280 steps with 2400 atoms

Minimization stats:
  Stopping criterion = energy tolerance
  Energy initial, next-to-last, final =
  Force two-norm initial, final = 55.798763 0.53267736
  Force max component initial, final = 4.1843848 0.12677351
  Final line search alpha, max atom move = 0.50000000 0.063386753
  Iterations, force evaluations = 280 541

timestep .001 # fetmoseconds
variable Tsim equal 1100 # Kelvin
velocity all create 1100 12335

#-------------------------------------------
# 1st equilibration run
fix 1 all nvt temp 1100 1100 $(100.0*dt)
fix 1 all nvt temp 1100 1100 0.10000000000000000555
thermo          100
reset_timestep 0
run 50000
Step Temp E_pair E_mol TotEng Press
0         1100   -11059.424            0   -10718.319    11150.497
Averages over the last 251 of 501 rows, steps 25000 to 50000:
Temp E_pair E_mol TotEng Press
1098.63 -10660.4 0 -10319.7 11136.6
Loop time of 10677 on 1 procs for 50000 steps with 2400 atoms

velocity        all scale 1100
unfix           1

#-----------------------------------------
# 2nd equilibration run
compute         ke all ke/atom
variable        temp atom c_ke/1.5

fix             1 all nve

compute         layers all chunk/atom bin/1d z lower 0.05 units reduced # <--- delta z ?
fix             2 all ave/chunk 10 100 1000 layers v_temp file profile.mp # <--- use every 10 steps, 100 times, repeat every 1000 steps
fix             3 all thermal/conductivity 10 z 20 # <--- perform kintic energy swap every 10 steps, using 20 bins

variable        tdiff equal f_2[11][3]-f_2[1][3]
thermo_style    custom step temp epair etotal f_3 v_tdiff
thermo          1000
run 200000
Step Temp E_pair TotEng f_3 v_tdiff
50000         1100   -10657.348   -10316.243            0            0
Averages over the last 101 of 201 rows, steps 150000 to 250000:
Temp E_pair TotEng f_3 v_tdiff
1108.52 -10659.7 -10315.9 5221.27 0.0629947
Loop time of 42150.3 on 1 procs for 200000 steps with 2400 atoms

#------------------------------------------
# thermal conductivity calculation
fix             3 all thermal/conductivity 10 z 20

variable start_time equal time
variable kappa equal (f_3/(time-250)/(lx*ly)/2.0)*(lz/2.0)/f_ave

fix             ave all ave/time 1 1 1000 v_tdiff ave running
thermo_style    custom step temp epair etotal f_3 v_tdiff f_ave

run 200000
Step Temp E_pair TotEng f_3 v_tdiff f_ave
250000    1082.6597   -10651.555   -10315.827            0  0.070024465  0.070024465
Averages over the last 101 of 201 rows, steps 350000 to 450000:
Temp E_pair TotEng f_3 v_tdiff f_ave
1111.22 -10660.1 -10315.5 5190.83 0.0631501 0.0629468
Loop time of 41932.4 on 1 procs for 200000 steps with 2400 atoms

print           "Running average thermal conductivity: $(v_kappa:%.2f)"
Running average thermal conductivity: 8.26

write_data	Therm_1100_restartpoint.lammps
System init for write_data ...
